power-flow-agent/results/ieee14/2026-09-18/gpt-5.4/plan_act_nogate/traces/13_case14-multistep-010-s0.transcript.txt
==============================================================================
TRANSCRIPT  plan_act_nogate  |  openrouter:openai/gpt-5.4  |  case14  |  case14-multistep-010-s0  run 0
==============================================================================
date: 2026-09-18   seed: 0   difficulty: multistep   tool variant: None

[system]   (hash 7da5e2a37ec4, from methods/plan_act_nogate/method.json prompt_files)
You are a power system power-flow analysis assistant. You help the user complete power system analysis tasks from natural-language requests.

## What you can do
You complete tasks by calling tool functions:
1. Load an IEEE standard test system (14, 30, 57, 118, 300 buses)
2. Run AC power flow
3. Modify the load at a bus and re-solve
4. Disconnect or reconnect a line and re-solve
5. Query the network status
6. Run an N-1 contingency analysis (disconnect branches one at a time and rank the worst cases)
7. Generate remedial-action suggestions (what-if load shedding or voltage adjustment) to reduce violation risk

## Key rules
- Never fabricate any numerical result. Every voltage, power, loss, or loading value must come from a tool return value.
- If a tool reports an error or a non-converged power flow, say so explicitly and do not report numbers for that state.
- If the request is ambiguous, state the interpretation you are using.
- Bus and line identifiers in the request are MATPOWER 1-based ids; pass them to the tools as given, unless the request itself states a different indexing convention for that identifier (e.g. "(0-based)"), in which case convert it to the MATPOWER 1-based id before calling any tool.
- After a network modification, re-solve before reporting any value.
- Always reply in English.

## Reply format
After each analysis, reply in this structure:
1. One-sentence summary
2. Key numbers (total load, total generation, total losses, voltage range) taken from the tool outputs
3. Violations, if any
4. Suggested next step

[user]
Load the 14-bus test case (case14), disconnect the line between bus 2 and bus 5, disconnect the line between bus 1 and bus 2, and finally rerun the power flow, then list every line whose loading is above 100%.

[tools available to the model]   (function-calling schema, --tool-variant v1; enum values and defaults as sent)
  load_case(case_name: string* in {case14, case30, case57, case118, case300})  Load IEEE test case.
  run_powerflow()  Run power flow on current case.
  modify_load(bus_id: integer*, p_mw: number*, q_mvar: number)  Modify bus load and recompute.
  disconnect_line(from_bus: integer*, to_bus: integer*)  Disconnect line/branch between two buses and recompute.
  reconnect_line(from_bus: integer*, to_bus: integer*)  Reconnect line/branch between two buses and recompute.
  get_most_loaded_branch()  Get most loaded branch.
  run_n1_contingency(top_k: integer (default 5), criteria: string in {max_violations, max_overload, min_voltage} (default max_violations), max_candidates: integer (default 0))  Run N-1 contingency analysis.
  recommend_remedial_actions(max_actions: integer (default 5), allow_load_shed: boolean (default True), allow_voltage_control: boolean (default True), include_best_comparison: boolean (default True))  Recommend remedial actions.
  apply_remedial_action(action_index: integer*, confirmed: boolean (default False))  Apply one remedial action by index.
  get_status()  Get current network status.
  generate_plot(plot_type: string* in {voltage_heatmap, flow_diagram, violation_overview, comparison})  Generate one plot.

[planner system prompt]   (hash 7f71af6e03f2; as assembled today from methods/plan_act; the planning call sends this plus the request)
You are the planner of a power-system analysis agent. You cannot call tools yourself. Given the user's request, output ONLY a JSON object of the form
{"plan": [{"tool": "<tool_name>", "args": {...}}, ...]}
listing, in execution order, every tool call needed to answer the request. Use only the tools below with exactly these argument names (* = required); where an argument lists allowed values, use one of them verbatim. Bus and line identifiers in the request are MATPOWER 1-based ids; pass them to the tools as given, unless the request itself states a different indexing convention for that identifier (e.g. "(0-based)"), in which case convert it to the MATPOWER 1-based id. Do not include explanations, markdown, or any text outside the JSON.

Available tools:
- load_case(case_name: string in {case14, case30, case57, case118, case300}*): Load IEEE test case.
- run_powerflow((none)): Run power flow on current case.
- modify_load(bus_id: integer*, p_mw: number*, q_mvar: number): Modify bus load and recompute.
- disconnect_line(from_bus: integer*, to_bus: integer*): Disconnect line/branch between two buses and recompute.
- reconnect_line(from_bus: integer*, to_bus: integer*): Reconnect line/branch between two buses and recompute.
- get_most_loaded_branch((none)): Get most loaded branch.
- run_n1_contingency(top_k: integer, criteria: string in {max_violations, max_overload, min_voltage}, max_candidates: integer): Run N-1 contingency analysis.
- recommend_remedial_actions(max_actions: integer, allow_load_shed: boolean, allow_voltage_control: boolean, include_best_comparison: boolean): Recommend remedial actions.
- apply_remedial_action(action_index: integer*, confirmed: boolean): Apply one remedial action by index.
- get_status((none)): Get current network status.
- generate_plot(plot_type: string in {voltage_heatmap, flow_diagram, violation_overview, comparison}*): Generate one plot.

[planner output]
[
 {
  "tool": "load_case",
  "args": {
   "case_name": "case14"
  }
 },
 {
  "tool": "disconnect_line",
  "args": {
   "from_bus": 2,
   "to_bus": 5
  }
 },
 {
  "tool": "disconnect_line",
  "args": {
   "from_bus": 1,
   "to_bus": 2
  }
 },
 {
  "tool": "run_powerflow",
  "args": {}
 },
 {
  "tool": "get_status",
  "args": {}
 }
]

--- round 1 ---
[assistant]   (390 in / 78 out tokens, 1.8 s)
{"plan":[{"tool":"load_case","args":{"case_name":"case14"}},{"tool":"disconnect_line","args":{"from_bus":2,"to_bus":5}},{"tool":"disconnect_line","args":{"from_bus":1,"to_bus":2}},{"tool":"run_powerflow","args":{}},{"tool":"get_status","args":{}}]}

--- round 2 ---
[tool load_case]   (gate: not applied)
{"case_name": "case14", "n_buses": 14, "n_generators": 5, "n_lines": 20, "n_loads": 11, "total_load_mw": 248.48875475450117, "total_gen_capacity_mw": 772.4000000000001}
[tool disconnect_line]   (gate: pass)
{"case_name": "case14", "converged": true, "bus_voltages": [{"bus_id": 1, "vm_pu": 1.06, "va_deg": 0.0, "is_violation": true, "violation_type": "overvoltage"}, {"bus_id": 2, "vm_pu": 1.045, "va_deg": -4.2080526785105805, "is_violation": false, "violation_type": null}, {"bus_id": 3, "vm_pu": 1.0100000000000002, "va_deg": -12.550843037949694, "is_violation": false, "violation_type": null}, {"bus_id": 4, "vm_pu": 1.0127414349353183, "va_deg": -11.060192610941481, "is_violation": false, "violation_type": null}, {"bus_id": 5, "vm_pu": 1.0114501292130678, "va_deg": -10.173730589739037, "is_violation": false, "violation_type": null}, {"bus_id": 6, "vm_pu": 1.0699999999999996, "va_deg": -15.45921034482133, "is_violation": true, "violation_type": "overvoltage"}, {"bus_id": 7, "vm_pu": 1.0601576290369006, "va_deg": -14.16508347210049, "is_violation": true, "violation_type": "overvoltage"}, {"bus_id": 8, "vm_pu": 1.0899999999999999, "va_deg": -14.16508347210049, "is_violation": true, "violation_type": "overvoltage"}, {"bus_id": 9, "vm_pu": 1.055691776645211, "va_deg": -15.76666664506592, "is_violation": true, "violation_type": "overvoltage"}, {"bus_id": 10, "vm_pu": 1.0512271144496905, "va_deg": -15.982583605681839, "is_violation": true, "violation_type": "overvoltage"}, {"bus_id": 11, "vm_pu": 1.0572767627715216, "va_deg": -15.842613596371496, "is_violation": true, "violation_type": "overvoltage"}, {"bus_id": 12, "vm_pu": 1.0548804032176782, "va_deg": -16.296733330153167, "is_violation": true, "violation_type": "overvoltage"}, {"bus_id": 13, "vm_pu": 1.0502701683691413, "va_deg": -16.343106032984657, "is_violation": true, "violation_type": "overvoltage"}, {"bus_id": 14, "vm_pu": 1.0362453643051646, "va_deg": -16.968948517459268, "is_violation": false, "violation_type": null}], "line_flows": [{"line_id": 0, "from_bus": 1, "to_bus": 2, "p_from_mw": 133.50166423851562, "q_from_mvar": -14.773733664018765, "loading_percent": 1.2799374093359912, "is_violation": false}, {"line_id": 1, "from_bus": 1, "to_bus": 5, "p_from_mw": 87.20910893289401, "q_from_mvar": 6.741557314249231, "loading_percent": 0.834603853850786, "is_violation": false}, {"line_id": 2, "from_bus": 2, "to_bus": 3, "p_from_mw": 78.64883141409317, "q_from_mvar": 3.05727026159374, "loading_percent": 0.760796778575318, "is_violation": false}, {"line_id": 3, "from_bus": 2, "to_bus": 4, "p_from_mw": 71.55324817209706, "q_from_mvar": -2.032382523932995, "loading_percent": 0.6919153837232884, "is_violation": false}, {"line_id": 4, "from_bus": 2, "to_bus": 5, "p_from_mw": 0.0, "q_from_mvar": 0.0, "loading_percent": 0.0, "is_violation": false}, {"line_id": 5, "from_bus": 3, "to_bus": 4, "p_from_mw": -13.968618864189214, "q_from_mvar": 3.4035460892980534, "loading_percent": 0.14726917061978687, "is_violation": false}, {"line_id": 6, "from_bus": 4, "to_bus": 5, "p_from_mw": -33.21830416180928, "q_from_mvar": 13.927806435097517, "loading_percent": 0.3592607632976988, "is_violation": false}, {"line_id": 7, "from_bus": 6, "to_bus": 11, "p_from_mw": 5.76576172256837, "q_from_mvar": 4.104007901472891, "loading_percent": 0.06681024385830014, "is_violation": false}, {"line_id": 8, "from_bus": 6, "to_bus": 12, "p_from_mw": 7.726984733725652, "q_from_mvar": 2.6587380416656665, "loading_percent": 0.07714158622742877, "is_violation": false}, {"line_id": 9, "from_bus": 6, "to_bus": 13, "p_from_mw": 17.163225660168063, "q_from_mvar": 7.592821142256261, "loading_percent": 0.17717094534732844, "is_violation": false}, {"line_id": 10, "from_bus": 9, "to_bus": 10, "p_from_mw": 6.17716587180768, "q_from_mvar": 3.2618115930786673, "loading_percent": 0.06683797866502392, "is_violation": false}, {"line_id": 11, "from_bus": 9, "to_bus": 14, "p_from_mw": 9.910468350505774, "q_from_mvar": 3.0228038781437174, "loading_percent": 0.09913756579869883, "is_violation": false}, {"line_id": 12, "from_bus": 10, "to_bus": 11, "p_from_mw": -2.3910095554547492, "q_from_mvar": -2.287923418795452, "loading_percent": 0.031798413811816646, "is_violation": false}, {"line_id": 13, "from_bus": 12, "to_bus": 13, "p_from_mw": 1.4124973884319336, "q_from_mvar": 0.8720832688141387, "loading_percent": 0.015895559659846164, "is_violation": false}, {"line_id": 14, "from_bus": 13, "to_bus": 14, "p_from_mw": 4.43411180126099, "q_from_mvar": 2.073309392881936, "loading_percent": 0.04707678687906508, "is_violation": false}, {"line_id": 100000, "from_bus": 4, "to_bus": 7, "p_from_mw": 28.43450833347614, "q_from_mvar": -11.428005559298025, "loading_percent": 0.30565176240985853, "is_violation": false}, {"line_id": 100001, "from_bus": 4, "to_bus": 9, "p_from_mw": 16.27725223746519, "q_from_mvar": -1.3137664893113736, "loading_percent": 0.16287608264431713, "is_violation": false}, {"line_id": 100002, "from_bus": 5, "to_bus": 6, "p_from_mw": 42.444651584971346, "q_from_mvar": 8.524747253677582, "loading_percent": 0.4323451463652302, "is_violation": false}, {"line_id": 100003, "from_bus": 7, "to_bus": 8, "p_from_mw": -2.1851261010377033e-14, "q_from_mvar": -17.960611549860346, "loading_percent": 0.17112579650091206, "is_violation": false}, {"line_id": 100004, "from_bus": 7, "to_bus": 9, "p_from_mw": 28.434508332880238, "q_from_mvar": 4.701145823534522, "loading_percent": 0.2745971887834912, "is_violation": false}], "total_generation_mw": 261.4981450832489, "total_load_mw": 248.48875475450117, "total_loss_mw": 13.009390343016635, "voltage_violations": [{"bus_id": 1, "vm_pu": 1.06, "va_deg": 0.0, "is_violation": true, "violation_type": "overvoltage"}, {"bus_id": 6, "vm_pu": 1.0699999999999996, "va_deg": -15.45921034482133, "is_violation": true, "violation_type": "overvoltage"}, {"bus_id": 7, "vm_pu": 1.0601576290369006, "va_deg": -14.16508347210049, "is_violation": true, "violation_type": "overvoltage"}, {"bus_id": 8, "vm_pu": 1.0899999999999999, "va_deg": -14.16508347210049, "is_violation": true, "violation_type": "overvoltage"}, {"bus_id": 9, "vm_pu": 1.055691776645211, "va_deg": -15.76666664506592, "is_violation": true, "violation_type": "overvoltage"}, {"bus_id": 10, "vm_pu": 1.0512271144496905, "va_deg": -15.982583605681839, "is_violation": true, "violation_type": "overvoltage"}, {"bus_id": 11, "vm_pu": 1.0572767627715216, "va_deg": -15.842613596371496, "is_violation": true, "violation_type": "overvoltage"}, {"bus_id": 12, "vm_pu": 1.0548804032176782, "va_deg": -16.296733330153167, "is_violation": true, "violation_type": "overvoltage"}, {"bus_id": 13, "vm_pu": 1.0502701683691413, "va_deg": -16.343106032984657, "is_violation": true, "violation_type": "overvoltage"}], "thermal_violations": [], "summary_text": "", "solver_backend": "pandapower", "llm_prompt": null, "llm_response": null}
[tool disconnect_line]   (gate: pass)
{"case_name": "case14", "converged": true, "bus_voltages": [{"bus_id": 1, "vm_pu": 1.06, "va_deg": 0.0, "is_violation": true, "violation_type": "overvoltage"}, {"bus_id": 2, "vm_pu": 1.0449999999999997, "va_deg": -37.99423013181056, "is_violation": false, "violation_type": null}, {"bus_id": 3, "vm_pu": 1.0099999999999998, "va_deg": -41.70351964761236, "is_violation": false, "violation_type": null}, {"bus_id": 4, "vm_pu": 0.9923270647637501, "va_deg": -35.103068467019014, "is_violation": false, "violation_type": null}, {"bus_id": 5, "vm_pu": 0.9783243931651453, "va_deg": -30.594619474651918, "is_violation": false, "violation_type": null}, {"bus_id": 6, "vm_pu": 1.0700000000000003, "va_deg": -37.27956706192807, "is_violation": true, "violation_type": "overvoltage"}, {"bus_id": 7, "vm_pu": 1.0495378163505638, "va_deg": -37.64683585819106, "is_violation": false, "violation_type": null}, {"bus_id": 8, "vm_pu": 1.0899999999999999, "va_deg": -37.646835858191075, "is_violation": true, "violation_type": "overvoltage"}, {"bus_id": 9, "vm_pu": 1.0434166069337865, "va_deg": -38.947804604719224, "is_violation": false, "violation_type": null}, {"bus_id": 10, "vm_pu": 1.0407276326272892, "va_deg": -38.921728930484576, "is_violation": false, "violation_type": null}, {"bus_id": 11, "vm_pu": 1.0515575829119803, "va_deg": -38.22373707759205, "is_violation": true, "violation_type": "overvoltage"}, {"bus_id": 12, "vm_pu": 1.054172102082558, "va_deg": -38.21977360569953, "is_violation": true, "violation_type": "overvoltage"}, {"bus_id": 13, "vm_pu": 1.0481552438619757, "va_deg": -38.35308866400066, "is_violation": false, "violation_type": null}, {"bus_id": 14, "vm_pu": 1.0281642888043923, "va_deg": -39.65289477642254, "is_violation": false, "violation_type": null}], "line_flows": [{"line_id": 0, "from_bus": 1, "to_bus": 2, "p_from_mw": 0.0, "q_from_mvar": 0.0, "loading_percent": 0.0, "is_violation": false}, {"line_id": 1, "from_bus": 1, "to_bus": 5, "p_from_mw": 247.2163640772223, "q_from_mvar": 40.89152732903619, "loading_percent": 2.3877971517363594, "is_violation": false}, {"line_id": 2, "from_bus": 2, "to_bus": 3, "p_from_mw": 37.05351373053494, "q_from_mvar": 8.405339216340241, "loading_percent": 0.3785342574665199, "is_violation": false}, {"line_id": 3, "from_bus": 2, "to_bus": 4, "p_from_mw": -17.254970159682234, "q_from_mvar": 35.79668992177537, "loading_percent": 0.41554046731355776, "is_violation": false}, {"line_id": 4, "from_bus": 2, "to_bus": 5, "p_from_mw": 0.0, "q_from_mvar": 0.0, "loading_percent": 0.0, "is_violation": false}, {"line_id": 5, "from_bus": 3, "to_bus": 4, "p_from_mw": -53.53042080388016, "q_from_mvar": 34.64120991646468, "loading_percent": 0.6441663796005785, "is_violation": false}, {"line_id": 6, "from_bus": 4, "to_bus": 5, "p_from_mw": -153.1100005865102, "q_from_mvar": 88.67101631302941, "loading_percent": 1.8010192668344878, "is_violation": false}, {"line_id": 7, "from_bus": 6, "to_bus": 11, "p_from_mw": 11.478476358150772, "q_from_mvar": 4.516791028821596, "loading_percent": 0.11644658062578861, "is_violation": false}, {"line_id": 8, "from_bus": 6, "to_bus": 12, "p_from_mw": 8.485833289585035, "q_from_mvar": 2.6026260791020794, "loading_percent": 0.08379099839514002, "is_violation": false}, {"line_id": 9, "from_bus": 6, "to_bus": 13, "p_from_mw": 20.12765174964624, "q_from_mvar": 7.873110364027439, "loading_percent": 0.20402800740261878, "is_violation": false}, {"line_id": 10, "from_bus": 9, "to_bus": 10, "p_from_mw": 0.5825862411329839, "q_from_mvar": 3.101197895610195, "loading_percent": 0.03054694046117853, "is_violation": false}, {"line_id": 11, "from_bus": 9, "to_bus": 14, "p_from_mw": 6.27667925043534, "q_from_mvar": 2.9652590251592907, "loading_percent": 0.06720214051843455, "is_violation": false}, {"line_id": 12, "from_bus": 10, "to_bus": 11, "p_from_mw": -7.974570618428685, "q_from_mvar": -2.4192674211560017, "loading_percent": 0.08088226636377632, "is_violation": false}, {"line_id": 13, "from_bus": 12, "to_bus": 13, "p_from_mw": 2.158454996535719, "q_from_mvar": 0.7891416476308009, "loading_percent": 0.022021100623698775, "is_violation": false}, {"line_id": 14, "from_bus": 13, "to_bus": 14, "p_from_mw": 8.073090615654104, "q_from_mvar": 2.1353920910081956, "loading_percent": 0.08047549114243598, "is_violation": false}, {"line_id": 100000, "from_bus": 4, "to_bus": 7, "p_from_mw": 22.601152392680568, "q_from_mvar": -16.42607337933403, "loading_percent": 0.2844015930039346, "is_violation": false}, {"line_id": 100001, "from_bus": 4, "to_bus": 9, "p_from_mw": 12.882239447587743, "q_from_mvar": -3.1292207134722054, "loading_percent": 0.13494300125286562, "is_violation": false}, {"line_id": 100002, "from_bus": 5, "to_bus": 6, "p_from_mw": 51.88064086923608, "q_from_mvar": -5.423487596265108, "loading_percent": 0.5385765007825806, "is_violation": false}, {"line_id": 100003, "from_bus": 7, "to_bus": 8, "p_from_mw": 9.793061619731047e-14, "q_from_mvar": -24.108198621745533, "loading_percent": 0.23202323346686402, "is_violation": false}, {"line_id": 100004, "from_bus": 7, "to_bus": 9, "p_from_mw": 22.60115239268029, "q_from_mvar": 6.096473831497209, "loading_percent": 0.2252935220401524, "is_violation": false}], "total_generation_mw": 288.00373598906157, "total_load_mw": 248.48875475450117, "total_loss_mw": 39.51498123457867, "voltage_violations": [{"bus_id": 1, "vm_pu": 1.06, "va_deg": 0.0, "is_violation": true, "violation_type": "overvoltage"}, {"bus_id": 6, "vm_pu": 1.0700000000000003, "va_deg": -37.27956706192807, "is_violation": true, "violation_type": "overvoltage"}, {"bus_id": 8, "vm_pu": 1.0899999999999999, "va_deg": -37.646835858191075, "is_violation": true, "violation_type": "overvoltage"}, {"bus_id": 11, "vm_pu": 1.0515575829119803, "va_deg": -38.22373707759205, "is_violation": true, "violation_type": "overvoltage"}, {"bus_id": 12, "vm_pu": 1.054172102082558, "va_deg": -38.21977360569953, "is_violation": true, "violation_type": "overvoltage"}], "thermal_violations": [], "summary_text": "", "solver_backend": "pandapower", "llm_prompt": null, "llm_response": null}
[tool run_powerflow]   (gate: pass)
{"case_name": "case14", "converged": true, "bus_voltages": [{"bus_id": 1, "vm_pu": 1.06, "va_deg": 0.0, "is_violation": true, "violation_type": "overvoltage"}, {"bus_id": 2, "vm_pu": 1.0449999999999997, "va_deg": -37.99423013181056, "is_violation": false, "violation_type": null}, {"bus_id": 3, "vm_pu": 1.0099999999999998, "va_deg": -41.70351964761236, "is_violation": false, "violation_type": null}, {"bus_id": 4, "vm_pu": 0.9923270647637501, "va_deg": -35.103068467019014, "is_violation": false, "violation_type": null}, {"bus_id": 5, "vm_pu": 0.9783243931651453, "va_deg": -30.594619474651918, "is_violation": false, "violation_type": null}, {"bus_id": 6, "vm_pu": 1.0700000000000003, "va_deg": -37.27956706192807, "is_violation": true, "violation_type": "overvoltage"}, {"bus_id": 7, "vm_pu": 1.0495378163505638, "va_deg": -37.64683585819106, "is_violation": false, "violation_type": null}, {"bus_id": 8, "vm_pu": 1.0899999999999999, "va_deg": -37.646835858191075, "is_violation": true, "violation_type": "overvoltage"}, {"bus_id": 9, "vm_pu": 1.0434166069337865, "va_deg": -38.947804604719224, "is_violation": false, "violation_type": null}, {"bus_id": 10, "vm_pu": 1.0407276326272892, "va_deg": -38.921728930484576, "is_violation": false, "violation_type": null}, {"bus_id": 11, "vm_pu": 1.0515575829119803, "va_deg": -38.22373707759205, "is_violation": true, "violation_type": "overvoltage"}, {"bus_id": 12, "vm_pu": 1.054172102082558, "va_deg": -38.21977360569953, "is_violation": true, "violation_type": "overvoltage"}, {"bus_id": 13, "vm_pu": 1.0481552438619757, "va_deg": -38.35308866400066, "is_violation": false, "violation_type": null}, {"bus_id": 14, "vm_pu": 1.0281642888043923, "va_deg": -39.65289477642254, "is_violation": false, "violation_type": null}], "line_flows": [{"line_id": 0, "from_bus": 1, "to_bus": 2, "p_from_mw": 0.0, "q_from_mvar": 0.0, "loading_percent": 0.0, "is_violation": false}, {"line_id": 1, "from_bus": 1, "to_bus": 5, "p_from_mw": 247.2163640772223, "q_from_mvar": 40.89152732903619, "loading_percent": 2.3877971517363594, "is_violation": false}, {"line_id": 2, "from_bus": 2, "to_bus": 3, "p_from_mw": 37.05351373053494, "q_from_mvar": 8.405339216340241, "loading_percent": 0.3785342574665199, "is_violation": false}, {"line_id": 3, "from_bus": 2, "to_bus": 4, "p_from_mw": -17.254970159682234, "q_from_mvar": 35.79668992177537, "loading_percent": 0.41554046731355776, "is_violation": false}, {"line_id": 4, "from_bus": 2, "to_bus": 5, "p_from_mw": 0.0, "q_from_mvar": 0.0, "loading_percent": 0.0, "is_violation": false}, {"line_id": 5, "from_bus": 3, "to_bus": 4, "p_from_mw": -53.53042080388016, "q_from_mvar": 34.64120991646468, "loading_percent": 0.6441663796005785, "is_violation": false}, {"line_id": 6, "from_bus": 4, "to_bus": 5, "p_from_mw": -153.1100005865102, "q_from_mvar": 88.67101631302941, "loading_percent": 1.8010192668344878, "is_violation": false}, {"line_id": 7, "from_bus": 6, "to_bus": 11, "p_from_mw": 11.478476358150772, "q_from_mvar": 4.516791028821596, "loading_percent": 0.11644658062578861, "is_violation": false}, {"line_id": 8, "from_bus": 6, "to_bus": 12, "p_from_mw": 8.485833289585035, "q_from_mvar": 2.6026260791020794, "loading_percent": 0.08379099839514002, "is_violation": false}, {"line_id": 9, "from_bus": 6, "to_bus": 13, "p_from_mw": 20.12765174964624, "q_from_mvar": 7.873110364027439, "loading_percent": 0.20402800740261878, "is_violation": false}, {"line_id": 10, "from_bus": 9, "to_bus": 10, "p_from_mw": 0.5825862411329839, "q_from_mvar": 3.101197895610195, "loading_percent": 0.03054694046117853, "is_violation": false}, {"line_id": 11, "from_bus": 9, "to_bus": 14, "p_from_mw": 6.27667925043534, "q_from_mvar": 2.9652590251592907, "loading_percent": 0.06720214051843455, "is_violation": false}, {"line_id": 12, "from_bus": 10, "to_bus": 11, "p_from_mw": -7.974570618428685, "q_from_mvar": -2.4192674211560017, "loading_percent": 0.08088226636377632, "is_violation": false}, {"line_id": 13, "from_bus": 12, "to_bus": 13, "p_from_mw": 2.158454996535719, "q_from_mvar": 0.7891416476308009, "loading_percent": 0.022021100623698775, "is_violation": false}, {"line_id": 14, "from_bus": 13, "to_bus": 14, "p_from_mw": 8.073090615654104, "q_from_mvar": 2.1353920910081956, "loading_percent": 0.08047549114243598, "is_violation": false}, {"line_id": 100000, "from_bus": 4, "to_bus": 7, "p_from_mw": 22.601152392680568, "q_from_mvar": -16.42607337933403, "loading_percent": 0.2844015930039346, "is_violation": false}, {"line_id": 100001, "from_bus": 4, "to_bus": 9, "p_from_mw": 12.882239447587743, "q_from_mvar": -3.1292207134722054, "loading_percent": 0.13494300125286562, "is_violation": false}, {"line_id": 100002, "from_bus": 5, "to_bus": 6, "p_from_mw": 51.88064086923608, "q_from_mvar": -5.423487596265108, "loading_percent": 0.5385765007825806, "is_violation": false}, {"line_id": 100003, "from_bus": 7, "to_bus": 8, "p_from_mw": 9.793061619731047e-14, "q_from_mvar": -24.108198621745533, "loading_percent": 0.23202323346686402, "is_violation": false}, {"line_id": 100004, "from_bus": 7, "to_bus": 9, "p_from_mw": 22.60115239268029, "q_from_mvar": 6.096473831497209, "loading_percent": 0.2252935220401524, "is_violation": false}], "total_generation_mw": 288.00373598906157, "total_load_mw": 248.48875475450117, "total_loss_mw": 39.51498123457867, "voltage_violations": [{"bus_id": 1, "vm_pu": 1.06, "va_deg": 0.0, "is_violation": true, "violation_type": "overvoltage"}, {"bus_id": 6, "vm_pu": 1.0700000000000003, "va_deg": -37.27956706192807, "is_violation": true, "violation_type": "overvoltage"}, {"bus_id": 8, "vm_pu": 1.0899999999999999, "va_deg": -37.646835858191075, "is_violation": true, "violation_type": "overvoltage"}, {"bus_id": 11, "vm_pu": 1.0515575829119803, "va_deg": -38.22373707759205, "is_violation": true, "violation_type": "overvoltage"}, {"bus_id": 12, "vm_pu": 1.054172102082558, "va_deg": -38.21977360569953, "is_violation": true, "violation_type": "overvoltage"}], "thermal_violations": [], "summary_text": "", "solver_backend": "pandapower", "llm_prompt": null, "llm_response": null}
[tool get_status]   (gate: not applied)
{"active_case": "case14", "network_info": {"case_name": "case14", "n_buses": 14, "n_generators": 5, "n_lines": 20, "n_loads": 11, "total_load_mw": 248.48875475450117, "total_gen_capacity_mw": 772.4000000000001}, "has_last_result": true, "last_result_summary": {"converged": true, "total_load_mw": 248.48875475450117, "total_generation_mw": 288.00373598906157, "total_loss_mw": 39.51498123457867, "n_voltage_violations": 5, "n_thermal_violations": 0, "solver_backend": "pandapower"}}

--- round 3 ---
[assistant final]   (8615 in / 408 out tokens, 3.8 s)
1. **One-sentence summary**  
After loading case14, disconnecting lines **2–5** and **1–2**, and rerunning the power flow, the case **converged**, and **2 lines** have loading above **100%**.

2. **Key numbers**  
- Total load: **248.48875475450117 MW**  
- Total generation: **288.00373598906157 MW**  
- Total losses: **39.51498123457867 MW**  
- Voltage range: **0.9783243931651453 pu** (bus 5) to **1.0899999999999999 pu** (bus 8)

- Lines with loading above 100%:
  - **Bus 1 – Bus 5**: loading **2.3877971517363594 pu** (from `loading_percent` field)
  - **Bus 4 – Bus 5**: loading **1.8010192668344878 pu** (from `loading_percent` field)

3. **Violations, if any**  
- **Thermal overloads above 100%**:
  - Line **1–5**
  - Line **4–5**
- **Voltage violations** reported at:
  - Bus **1**: **1.06 pu**
  - Bus **6**: **1.0700000000000003 pu**
  - Bus **8**: **1.0899999999999999 pu**
  - Bus **11**: **1.0515575829119803 pu**
  - Bus **12**: **1.054172102082558 pu**

4. **Suggested next step**  
A good next step is to test a remedial action, such as reconnecting one of the outaged lines or running a contingency/remedial-action study to reduce the overloads on **1–5** and **4–5**.
